LAMMPS (22 Aug 2018)
##
dimension 3
boundary p p p
atom_style full
units metal
#kspace_style pppm/cg 1.0e-4
#kspace_modify pressure/scalar no
dielectric 2.0
bond_style harmonic
angle_style harmonic

neighbor 2.0 bin
neigh_modify delay 0 every 1 check yes page 500000 one 50000

region box1 block -40.0 40.0 -40.0 40.0 -40.0 40.0
create_box 4 box1 bond/types 2 extra/bond/per/atom 2 angle/types 1 extra/angle/per/atom 1 extra/special/per/atom 10
Created orthogonal box = (-40 -40 -40) to (40 40 40)

molecule cat_ion cation_mol.txt
Read molecule cat_ion:
  3 atoms with max type 4
  2 bonds with max type 2
  1 angles with max type 1
  0 dihedrals with max type 0
  0 impropers with max type 0

mass    1  86.8 #anion
mass    2  67.0 #ring
mass    3  15.0 #methyl
mass    4  29.0 #ethyl

create_atoms 1 random 100 1340 box1
Created 100 atoms
  Time spent = 0.00110412 secs
create_atoms 0 random 100 2345 box1 mol cat_ion 1234
Created 300 atoms
  Time spent = 0.000100136 secs
#create_atoms 1 single  10.0 0.0 0.0
#create_atoms 0 single 0.0 0.0 0.0 mol cat_ion 1234
group anion type 1
100 atoms in group anion
group ring type 2
100 atoms in group ring
group methyl type 3
100 atoms in group methyl
group ethyl type 4
100 atoms in group ethyl

bond_coeff 1 207.729 2.689748837
bond_coeff 2 207.729 3.04931147
angle_coeff 1 207.729 144.1868904

## -- INTERATOMIC POTENTIALS -- #
pair_style nm/cut 30.0
################### properties to change
## values from easy begin

pair_coeff 1 1 2.55775855 5.77468231 10.177908113392 12.0000
pair_coeff 1 2 3.34765931 6.26892741 10.177908113392 12.0000
pair_coeff 1 3 2.00556578 4.28154794 10.177908113392 12.0000
pair_coeff 1 4 2.80927754 6.79832446 10.177908113392 12.0000
pair_coeff 2 2 4.38150147 6.80547410 10.177908113392 12.0000
pair_coeff 2 3 2.62493539 4.64799825 10.177908113392 12.0000
pair_coeff 2 4 3.67685374 7.38018133 10.177908113392 12.0000
pair_coeff 3 3 1.57258553 3.17448680 10.177908113392 12.0000
pair_coeff 3 4 2.20278450 5.04051142 10.177908113392 12.0000
pair_coeff 4 4 3.08552981 8.00342131 10.177908113392 12.0000

## values from easy end

#create_bonds single/bond 1 2 3
#create_bonds single/bond 2 2 4
#create_bonds single/angle 1 3 2 4

set type 1 charge -1.0
  100 settings made for charge
#set type 2 charge  0.408675
#set type 3 charge  0.317505
#set type 4 charge  0.273820

########################################

write_data solid.data pair ij
  update every 1 steps, delay 0 steps, check yes

thermo_style	custom step temp pe ke ebond press density

##################################
variable    T equal 500
variable    V equal vol
variable    dt equal 0.00005
variable    p equal 400     # correlation length
variable    s equal 5       # sample interval
variable    d equal $p*$s   # dump interval
variable    d equal 400*$s
variable    d equal 400*5

# convert from LAMMPS real units to SI

variable    kB equal 1.3806504e-23    # [J/K/** Boltzmann
variable    bar2Pa equal 100000.0
variable    A2m equal 1.0e-10
variable    ps2s equal 1.0e-12
variable    convert equal 100000*100000*1e-12*1e-10*1e-10*1e-10
timestep    5e-05
variable    tdamp equal 5e-05*10.
variable    pdamp equal 5e-05*100.
thermo      $d
thermo      2000

variable    ILdens equal density
variable    ILstep equal step
variable    ILtime equal time*1.0e-12 #from ps to s
variable    ILtemp equal temp
variable    ILpe equal pe
variable    ILke equal ke
variable    ILpr equal press

##################################
dump        1 all dcd $d minim.dcd
dump        1 all dcd 2000 minim.dcd
dump        2 all custom $d dump.atom id mass type x y z
dump        2 all custom 2000 dump.atom id mass type x y z

##################################
##################################
#  Minimize initial
##################################

velocity     all create $T 987654321 mom yes rot yes dist gaussian
velocity     all create 500 987654321 mom yes rot yes dist gaussian
minimize 1.e-4 1.0e-6 1000 10000
Step Temp PotEng KinEng E_bond Press Density
0          500 3.7805329e+11    25.787399    1.4574399 4.7573404e+12  0.064151289
Loop time of 9.64513 on 1 procs for 1000 steps with 400 atoms

Minimization stats:
  Stopping criterion = max iterations
  Energy initial, next-to-last, final =
  Force two-norm initial, final = 6.56861e+12 44.2015
  Force max component initial, final = 2.90062e+12 13.8323
  Final line search alpha, max atom move = 0.00233662 0.0323208
  Iterations, force evaluations = 1000 1724

reset_timestep 0
fix 1 all npt temp 500 500 0.0005 iso 1.0 1.0 0.005
run             200000
Step Temp PotEng KinEng E_bond Press Density
0          500   -3469.2111    25.787399    2.9172703   -769.50977  0.064151289
Averages over the last 51 of 101 rows, steps 100000 to 200000:
Temp PotEng KinEng E_bond Press Density
506.752 -7274.36 26.1356 6.40043 -1354.93 0.557533
Loop time of 8674.41 on 1 procs for 200000 steps with 400 atoms

unfix 1
unfix 333
fix 1 all nvt temp 500 500 0.0005

reset_timestep 0
variable     pxy equal pxy
variable     pxz equal pxz
variable     pyz equal pyz
fix          SS all ave/correlate $s $p $d              v_pxy v_pxz v_pyz type auto file S0St.dat ave running
fix          SS all ave/correlate 5 $p $d              v_pxy v_pxz v_pyz type auto file S0St.dat ave running
fix          SS all ave/correlate 5 400 $d              v_pxy v_pxz v_pyz type auto file S0St.dat ave running
fix          SS all ave/correlate 5 400 2000              v_pxy v_pxz v_pyz type auto file S0St.dat ave running
variable     scale equal 1e-32/(1.3806504e-23*500)*58836.8624504052*5*5e-05
variable     v11 equal trap(f_SS[3])*2.13076613929222e-11
variable     v22 equal trap(f_SS[4])*2.13076613929222e-11
variable     v33 equal trap(f_SS[5])*2.13076613929222e-11
variable     v equal (v_v11+v_v22+v_v33)/3.0
thermo_style custom step temp pe press v_pxy v_pxz v_pyz v_v11 v_v22 v_v33
run          8000000
Step Temp PotEng Press v_pxy v_pxz v_pyz v_v11 v_v22 v_v33
0    503.82467   -7306.5535   -8036.9956    1858.7563   -5571.3826    3229.2313 3.680872e-05 0.00033069814 0.00011109745
Averages over the last 2001 of 4001 rows, steps 4000000 to 8000000:
Temp PotEng Press v_pxy v_pxz v_pyz v_v11 v_v22 v_v33
500.085 -7309.67 -4130.42 -580.424 -5894.51 4692.23 0.00486972 0.297264 0.184169
Loop time of 429338 on 1 procs for 8000000 steps with 400 atoms

variable     ndens equal count(all)/vol
average viscosity: 0.161921978143812 [Pa.s] @ 500 K, 0.00679845905000744 /A^3
