LAMMPS (22 Aug 2018)
# Sample LAMMPS input script for viscosity of liquid Ar

units       real
variable    T equal 86.4956
variable    V equal vol
variable    dt equal 4.0
variable    p equal 400     # correlation length
variable    s equal 5       # sample interval
variable    d equal $p*$s   # dump interval
variable    d equal 400*$s
variable    d equal 400*5

# convert from LAMMPS real units to SI

variable    kB equal 1.3806504e-23    # [J/K/** Boltzmann
variable    atm2Pa equal 101325.0
variable    A2m equal 1.0e-10
variable    fs2s equal 1.0e-15
variable    convert equal 101325*101325*1e-15*1e-10*1e-10*1e-10

# setup problem

dimension    3
boundary     p p p
lattice      fcc 5.376 orient x 1 0 0 orient y 0 1 0 orient z 0 0 1
Lattice spacing in x,y,z = 5.376 5.376 5.376
region       box block 0 4 0 4 0 4
create_box   1 box
Created orthogonal box = (0 0 0) to (21.504 21.504 21.504)
create_atoms 1 box
Created 256 atoms
  Time spent = 0.000488997 secs
mass         1 39.948
pair_style   lj/cut 13.0
pair_coeff   * * 0.2381 3.405
timestep     4
thermo       $d
thermo       2000

dump positions all atom 100 filename.lammpstrj
# equilibration and thermalization

velocity     all create $T 102486 mom yes rot yes dist gaussian
velocity     all create 86.4956 102486 mom yes rot yes dist gaussian
fix          NVT all nvt temp $T $T 10 drag 0.2
fix          NVT all nvt temp 86.4956 $T 10 drag 0.2
fix          NVT all nvt temp 86.4956 86.4956 10 drag 0.2
run          8000
  update every 1 steps, delay 10 steps, check yes
Step Temp E_pair E_mol TotEng Press
0      86.4956   -505.75228            0   -440.00641   -1232.2554
Loop time of 4.46739 on 1 procs for 8000 steps with 256 atoms

# viscosity calculation, switch to NVE if desired

#unfix       NVT
#fix         NVE all nve

reset_timestep 0
variable     pxy equal pxy
variable     pxz equal pxz
variable     pyz equal pyz
fix          SS all ave/correlate $s $p $d              v_pxy v_pxz v_pyz type auto file S0St.dat ave running
fix          SS all ave/correlate 5 $p $d              v_pxy v_pxz v_pyz type auto file S0St.dat ave running
fix          SS all ave/correlate 5 400 $d              v_pxy v_pxz v_pyz type auto file S0St.dat ave running
fix          SS all ave/correlate 5 400 2000              v_pxy v_pxz v_pyz type auto file S0St.dat ave running
variable     scale equal 1.0266755625e-35/(1.3806504e-23*86.4956)*9943.923032064*5*4
variable     v11 equal trap(f_SS[3])*1.70979182368186e-09
variable     v22 equal trap(f_SS[4])*1.70979182368186e-09
variable     v33 equal trap(f_SS[5])*1.70979182368186e-09
thermo_style custom step temp press v_pxy v_pxz v_pyz v_v11 v_v22 v_v33
run          10000
Step Temp Press v_pxy v_pxz v_pyz v_v11 v_v22 v_v33
0    91.445859    1061.6552    3.9881888    16.686864   -129.27611 1.3597675e-08 2.3804698e-07 1.4287289e-05
Loop time of 5.73347 on 1 procs for 10000 steps with 256 atoms

variable     v equal (v_v11+v_v22+v_v33)/3.0
variable     ndens equal count(all)/vol
average viscosity: 0.000113972063085792 [Pa.s] @ 86.4956 K, 0.0257443666020476 /A^3
