units	lj
atom_style atomic

lattice	fcc $d
lattice	fcc 0.8442
Lattice spacing in x,y,z = 1.6796 1.6796 1.6796
region	box block 0 10 0 10 0 10
create_box	1 box
Created orthogonal box = (0 0 0) to (16.796 16.796 16.796)
create_atoms	1 box
Created 4000 atoms
  Time spent = 0.000557899 secs
mass	1	1.0
velocity	all create $t 87287
velocity	all create 0.0 87287

pair_style	lj/cut 2.5
pair_coeff	1 1 1.0 1.0 2.5
neighbor	0.3 bin
neigh_modify	every 20 delay 0 check no

fix 1 all nve
thermo 10
run 1000
  update every 20 steps, delay 0 steps, check no
Step Temp E_pair E_mol TotEng Press
0            0   -6.7733681            0   -6.7733681   -6.2353173
Averages over the last 51 of 101 rows, steps 500 to 1000:
Temp E_pair E_mol TotEng Press
6.71334e-27 -6.77337 0 -6.77337 -6.23532
Loop time of 1.82643 on 1 procs for 1000 steps with 4000 atoms
