LAMMPS (16 Mar 2018)
# Input file for uniaxial compressiCu ve loading of single crystal aluminum
# Mark Tschopp, November 2010

# ------------------------ INITIALIZATION ----------------------------
units 		metal
dimension	3
boundary	p	p	p
atom_style	atomic
variable latparam equal 3.61

# ----------------------- ATOM DEFINITION ----------------------------
lattice		fcc 3.61
Lattice spacing in x,y,z = 3.61 3.61 3.61
region		whole block 0 10 0 10 0 10
create_box	1 whole
Created orthogonal box = (0 0 0) to (36.1 36.1 36.1)

region		upper block INF INF INF INF INF INF units box
lattice 	fcc 3.61 orient x 1 0 0 orient y 0 1 0 orient z 0 0 1
Lattice spacing in x,y,z = 3.61 3.61 3.61
create_atoms	1 region upper
Created 4000 atoms
  Time spent = 0.00240612 secs

# ------------------------ FORCE FIELDS ------------------------------
pair_style	meam
pair_coeff	* * library.meam Cu Cu.meam Cu
Reading potential file library.meam with DATE: 2012-06-29
Reading potential file Cu.meam with DATE: 2007-06-11

# ------------------------- SETTINGS ---------------------------------
compute csym all centro/atom fcc
compute peratom all pe/atom

######################################
# EQUILIBRATION
reset_timestep	0
timestep 0.01
velocity all create 300 12345 mom yes rot no
fix 1 all npt temp 300 300 1 iso 0 0 1 drag 1

# Set thermo output
thermo 100
thermo_style custom step lx ly lz press pxx pyy pzz pe temp

# Run for at least 10 picosecond (assuming 1 fs timestep)
run 2000
  update every 1 steps, delay 10 steps, check yes
Step Lx Ly Lz Press Pxx Pyy Pzz PotEng Temp
0         36.1         36.1         36.1    15228.088    15158.711    15282.495    15243.059   -14158.578          300
Averages over the last 11 of 21 rows, steps 1000 to 2000:
Lx Ly Lz Press Pxx Pyy Pzz PotEng Temp
36.2958 36.2958 36.2958 -11.473 -117.469 41.9396 41.1101 -14025.2 290.295
Loop time of 236.871 on 1 procs for 2000 steps with 4000 atoms

unfix 1

# Store final cell length for strain calculations
variable tmp equal "lx"
variable L0 equal 36.2958856559865
Initial Length, L0: 36.2958856559865

######################################
# DEFORMATION
reset_timestep	0

fix		1 all npt temp 300 300 1 y 0 0 1 z 0 0 1 drag 1
variable srate equal 1.0e10
variable srate1 equal "-v_srate / 1.0e12"
fix		2 all deform 1 x erate -0.01 units box remap x

# Output strain and stress info to file
# for units metal, pressure is in [bars] = 100 [kPa] = 1/10000 [GPa]
# p2, p3, p4 are in GPa
variable strain equal "(lx - v_L0)/v_L0"
variable p1 equal "v_strain"
variable p2 equal "-pxx/10000"
variable p3 equal "-pyy/10000"
variable p4 equal "-pzz/10000"

# Use cfg for AtomEye
dump 		1 all custom 250 dump.Cu.* id xs ys zs c_csym c_peratom fx fy fz

# Display thermo
thermo 	100
thermo_style	custom step v_strain temp v_p2 v_p3 v_p4 ke pe press

run		2000
Step v_strain Temp v_p2 v_p3 v_p4 KinEng PotEng Press
0 3.9152798e-16    301.52632  0.033870657 0.00057125112 -0.060577619    155.86237   -14022.219    87.119035
Averages over the last 11 of 21 rows, steps 1000 to 2000:
v_strain Temp v_p2 v_p3 v_p4 KinEng PotEng Press
-0.15 300.559 -0.926655 -0.0543028 -0.0391363 155.363 -13945.4 3400.31
Loop time of 205.354 on 1 procs for 2000 steps with 4000 atoms

######################################
# SIMULATION DONE
print "All done"
All done
