LAMMPS (16 Mar 2018)
dimension 3
boundary p p p
atom_style full
units metal
kspace_style pppm/cg 1.0e-4
kspace_modify pressure/scalar no
bond_style harmonic
angle_style harmonic

neighbor 2.0 bin
neigh_modify delay 0 every 1 check yes

region box1 block -40.0 40.0 -40.0 40.0 -40.0 40.0
create_box 4 box1 bond/types 2 extra/bond/per/atom 2 angle/types 1 extra/angle/per/atom 1 extra/special/per/atom 10
Created orthogonal box = (-40 -40 -40) to (40 40 40)

molecule cat_ion cation_mol.txt
Read molecule cat_ion:
  3 atoms with max type 4
  2 bonds with max type 2
  1 angles with max type 1
  0 dihedrals with max type 0
  0 impropers with max type 0

mass    1  86.8 #anion
mass    2  67.0 #ring
mass    3  15.0 #methyl
mass    4  29.0 #ethyl

create_atoms 1 random 40 1340 box1                     #at least 40
Created 40 atoms
  Time spent = 0.00427294 secs
create_atoms 0 random 40 2345 box1 mol cat_ion 1234    #at least 40
Created 120 atoms
  Time spent = 0.000179052 secs
#create_atoms 1 single  10.0 0.0 0.0
#create_atoms 0 single 0.0 0.0 0.0 mol cat_ion 1234
group anion type 1
40 atoms in group anion
group ring type 2
40 atoms in group ring
group methyl type 3
40 atoms in group methyl
group ethyl type 4
40 atoms in group ethyl

bond_coeff 1 87.729 2.689748837
bond_coeff 2 87.729 3.04931147
angle_coeff 1 87.729 144.1868904
pair_style lj/cut/coul/long 30.0
#pair_style nm/cut/coul/long 30.0
pair_modify mix geometric
################### properties to change
pair_coeff 1 1   1.1436950146628  1.3636363636364
pair_coeff 2 2   1.1436950146628  7.3998044965787
pair_coeff 3 3   3.5972629521017  0.57429130009775
pair_coeff 4 4   1.0654936461388  3.4345063538612

#create_bonds single/bond 1 2 3
#create_bonds single/bond 2 2 4
#create_bonds single/angle 1 3 2 4

set type 1 charge -1.0
  40 settings made for charge
#set type 2 charge  0.408675
#set type 3 charge  0.317505
#set type 4 charge  0.273820

########################################

write_data solid.data pair ij
PPPM initialization ...
  G vector (1/distance) = 0.0715088
  grid = 8 8 8
  stencil order = 5
  estimated absolute RMS force accuracy = 0.000442562
  estimated relative force accuracy = 3.07342e-05
  3d grid and FFT values/proc = 2197 512
  update every 1 steps, delay 0 steps, check yes

thermo_style	custom step temp pe ke ebond press density

##################################
variable    T equal 298.0
variable    V equal vol
variable    dt equal 0.0001
variable    p equal 400     # correlation length
variable    s equal 5       # sample interval
variable    d equal $p*$s   # dump interval
variable    d equal 400*$s
variable    d equal 400*5

# convert from LAMMPS real units to SI

variable    kB equal 1.3806504e-23    # [J/K/** Boltzmann
variable    bar2Pa equal 100000.0
variable    A2m equal 1.0e-10
variable    ps2s equal 1.0e-12
variable    convert equal 100000*100000*1e-12*1e-10*1e-10*1e-10
timestep     0.0001
variable    tdamp equal 0.0001*10.
variable    pdamp equal 0.0001*100.
thermo       $d
thermo       2000

variable  ILdens equal density
variable  ILstep equal step
variable  ILtime equal time*1.0e-12 #from ps to s
variable  ILtemp equal temp
variable  ILpe equal pe
variable  ILke equal ke
variable  ILpr equal press

##################################
dump 1 all dcd $d minim.dcd
dump 1 all dcd 2000 minim.dcd
dump 2 all custom $d dump.atom id mass type x y z
dump 2 all custom 2000 dump.atom id mass type x y z

##################################
##################################
#  Minimize initial
##################################

velocity     all create $T 102486 mom yes rot yes dist gaussian
velocity     all create 298 102486 mom yes rot yes dist gaussian
minimize 1.e-4 1.0e-6 1000 10000
PPPM initialization ...
  G vector (1/distance) = 0.0715088
  grid = 8 8 8
  stencil order = 5
  estimated absolute RMS force accuracy = 0.000442562
  estimated relative force accuracy = 3.07342e-05
  3d grid and FFT values/proc = 2197 512
  PPPM/cg optimization cutoff: 1e-05
  Total charged atoms: 100.0%
  Min/max charged atoms/proc: 100.0% 100.0%
Step Temp PotEng KinEng E_bond Press Density
0          298 1.9566855e+11    6.1246042    0.2462049 2.4491899e+12  0.025660516
Loop time of 0.168336 on 1 procs for 132 steps with 160 atoms

Minimization stats:
  Stopping criterion = energy tolerance
  Energy initial, next-to-last, final =
  Force two-norm initial, final = 3.45083e+12 12.7731
  Force max component initial, final = 1.52393e+12 7.99571
  Final line search alpha, max atom move = 0.0119064 0.0951999
  Iterations, force evaluations = 132 191

reset_timestep 0
fix 1 all npt temp 298 298 0.001 iso 1.0 1.0 0.01
run             800000
PPPM initialization ...
  G vector (1/distance) = 0.0715088
  grid = 8 8 8
  stencil order = 5
  estimated absolute RMS force accuracy = 0.000442562
  estimated relative force accuracy = 3.07342e-05
  3d grid and FFT values/proc = 2197 512
Step Temp PotEng KinEng E_bond Press Density
0          298   -90.182286    6.1246042  0.092290692   -71.185126  0.025660516
Averages over the last 201 of 401 rows, steps 400000 to 800000:
Temp PotEng KinEng E_bond Press Density
298.707 -1073.55 6.13914 1.38488 354.322 0.886248
Loop time of 4955.52 on 1 procs for 800000 steps with 160 atoms

unfix 1
unfix 333
fix 1 all nvt temp 298 298 0.001

reset_timestep 0
variable     pxy equal pxy
variable     pxz equal pxz
variable     pyz equal pyz
fix          SS all ave/correlate $s $p $d              v_pxy v_pxz v_pyz type auto file S0St.dat ave running
fix          SS all ave/correlate 5 $p $d              v_pxy v_pxz v_pyz type auto file S0St.dat ave running
fix          SS all ave/correlate 5 400 $d              v_pxy v_pxz v_pyz type auto file S0St.dat ave running
fix          SS all ave/correlate 5 400 2000              v_pxy v_pxz v_pyz type auto file S0St.dat ave running
variable     scale equal 1e-32/(1.3806504e-23*298)*14767.5143749423*5*0.0001
variable     v11 equal trap(f_SS[3])*1.79464031465091e-11
variable     v22 equal trap(f_SS[4])*1.79464031465091e-11
variable     v33 equal trap(f_SS[5])*1.79464031465091e-11
variable     v equal (v_v11+v_v22+v_v33)/3.0
thermo_style custom step temp pe press v_pxy v_pxz v_pyz v_v11 v_v22 v_v33
run          8000000
PPPM initialization ...
  G vector (1/distance) = 0.0862804
  grid = 4 4 4
  stencil order = 5
  estimated absolute RMS force accuracy = 0.000317158
  estimated relative force accuracy = 2.20254e-05
  3d grid and FFT values/proc = 729 64
Step Temp PotEng Press v_pxy v_pxz v_pyz v_v11 v_v22 v_v33
0     289.8367    -1073.262    5386.5089   -7097.3519    215.62437    -3019.588 0.00045200173 4.1719885e-07 8.1816862e-05
Averages over the last 2001 of 4001 rows, steps 4000000 to 8000000:
Temp PotEng Press v_pxy v_pxz v_pyz v_v11 v_v22 v_v33
298.065 -1074.22 2366.65 -7996.31 397.916 -766.474 0.445991 0.00243169 0.00534889
Loop time of 46873.1 on 1 procs for 8000000 steps with 160 atoms

variable     ndens equal count(all)/vol
average viscosity: 0.15218141522782 [Pa.s] @ 298 K, 0.0108345924667925 /A^3
