LAMMPS (16 Mar 2018)
dimension 3
boundary p p p
atom_style full
units metal
kspace_style pppm/cg 1.0e-4
kspace_modify pressure/scalar no
bond_style harmonic
angle_style harmonic

neighbor 2.0 bin
neigh_modify delay 0 every 1 check yes

region box1 block -40.0 40.0 -40.0 40.0 -40.0 40.0
create_box 4 box1 bond/types 2 extra/bond/per/atom 2 angle/types 1 extra/angle/per/atom 1 extra/special/per/atom 10
Created orthogonal box = (-40 -40 -40) to (40 40 40)

molecule cat_ion cation_mol.txt
Read molecule cat_ion:
  3 atoms with max type 4
  2 bonds with max type 2
  1 angles with max type 1
  0 dihedrals with max type 0
  0 impropers with max type 0

mass    1  86.8 #anion
mass    2  67.0 #ring
mass    3  15.0 #methyl
mass    4  29.0 #ethyl

create_atoms 1 random 20 1340 box1                     #at least 40
Created 20 atoms
  Time spent = 0.00276899 secs
create_atoms 0 random 20 2345 box1 mol cat_ion 1234    #at least 40
Created 60 atoms
  Time spent = 6.19888e-05 secs
#create_atoms 1 single  10.0 0.0 0.0
#create_atoms 0 single 0.0 0.0 0.0 mol cat_ion 1234
group anion type 1
20 atoms in group anion
group ring type 2
20 atoms in group ring
group methyl type 3
20 atoms in group methyl
group ethyl type 4
20 atoms in group ethyl

bond_coeff 1 87.729 2.689748837
bond_coeff 2 87.729 3.04931147
angle_coeff 1 87.729 144.1868904
pair_style lj/cut/coul/long 30.0
pair_modify mix geometric
################### properties to change
pair_coeff 1 1   2.1896383186706   1.8000977517107
pair_coeff 2 2   1.930596285435    7.0933528836755
pair_coeff 3 3   1.8670576735093   0.54643206256109
pair_coeff 4 4   4.7800586510264   2.747311827957

#create_bonds single/bond 1 2 3
#create_bonds single/bond 2 2 4
#create_bonds single/angle 1 3 2 4

set type 1 charge -1.0
  20 settings made for charge
#set type 2 charge  0.408675
#set type 3 charge  0.317505
#set type 4 charge  0.273820

########################################

write_data solid.data pair ij
PPPM initialization ...
  G vector (1/distance) = 0.0714995
  grid = 8 8 8
  stencil order = 5
  estimated absolute RMS force accuracy = 0.000312959
  estimated relative force accuracy = 2.17338e-05
  3d grid and FFT values/proc = 2197 512
  update every 1 steps, delay 0 steps, check yes

thermo_style	custom step temp pe ke ebond press density

##################################
variable    T equal 298.0
variable    V equal vol
variable    dt equal 0.0001
variable    p equal 400     # correlation length
variable    s equal 5       # sample interval
variable    d equal $p*$s   # dump interval
variable    d equal 400*$s
variable    d equal 400*5

# convert from LAMMPS real units to SI

variable    kB equal 1.3806504e-23    # [J/K/** Boltzmann
variable    bar2Pa equal 100000.0
variable    A2m equal 1.0e-10
variable    ps2s equal 1.0e-12
variable    convert equal 100000*100000*1e-12*1e-10*1e-10*1e-10
timestep     0.0001
variable    tdamp equal 0.0001*10.
variable    pdamp equal 0.0001*100.
thermo       $d
thermo       2000

variable  ILdens equal density
variable  ILstep equal step
variable  ILtime equal time*1.0e-12 #from ps to s
variable  ILtemp equal temp
variable  ILpe equal pe
variable  ILke equal ke
variable  ILpr equal press

##################################
dump 1 all dcd $d minim.dcd
dump 1 all dcd 2000 minim.dcd
dump 2 all custom $d dump.atom id mass type x y z
dump 2 all custom 2000 dump.atom id mass type x y z

##################################
##################################
#  Minimize initial
##################################

velocity     all create $T 102486 mom yes rot yes dist gaussian
velocity     all create 298 102486 mom yes rot yes dist gaussian
minimize 1.e-4 1.0e-6 1000 10000
PPPM initialization ...
  G vector (1/distance) = 0.0714995
  grid = 8 8 8
  stencil order = 5
  estimated absolute RMS force accuracy = 0.000312959
  estimated relative force accuracy = 2.17338e-05
  3d grid and FFT values/proc = 2197 512
  PPPM/cg optimization cutoff: 1e-05
  Total charged atoms: 100.0%
  Min/max charged atoms/proc: 100.0% 100.0%
Step Temp PotEng KinEng E_bond Press Density
0          298    885643.37    3.0430423   0.12310245     11107660  0.012830258
Loop time of 0.212081 on 1 procs for 242 steps with 80 atoms

Minimization stats:
  Stopping criterion = energy tolerance
  Energy initial, next-to-last, final =
  Force two-norm initial, final = 8.65232e+06 5.94384
  Force max component initial, final = 3.72573e+06 3.60985
  Final line search alpha, max atom move = 0.0255117 0.0920936
  Iterations, force evaluations = 242 418

reset_timestep 0
fix 1 all npt temp 298 298 0.001 iso 1.0 1.0 0.01
run             800000
PPPM initialization ...
  G vector (1/distance) = 0.0714995
  grid = 8 8 8
  stencil order = 5
  estimated absolute RMS force accuracy = 0.000312959
  estimated relative force accuracy = 2.17338e-05
  3d grid and FFT values/proc = 2197 512
Step Temp PotEng KinEng E_bond Press Density
0          298   -76.765482    3.0430423  0.057149599   -8.3885966  0.012830258
Averages over the last 201 of 401 rows, steps 400000 to 800000:
Temp PotEng KinEng E_bond Press Density
298.493 -952.168 3.04808 2.15318 -639.47 1.00752
Loop time of 2836.83 on 1 procs for 800000 steps with 80 atoms

unfix 1
unfix 333
fix 1 all nvt temp 298 298 0.001

reset_timestep 0
variable     pxy equal pxy
variable     pxz equal pxz
variable     pyz equal pyz
fix          SS all ave/correlate $s $p $d              v_pxy v_pxz v_pyz type auto file S0St.dat ave running
fix          SS all ave/correlate 5 $p $d              v_pxy v_pxz v_pyz type auto file S0St.dat ave running
fix          SS all ave/correlate 5 400 $d              v_pxy v_pxz v_pyz type auto file S0St.dat ave running
fix          SS all ave/correlate 5 400 2000              v_pxy v_pxz v_pyz type auto file S0St.dat ave running
variable     scale equal 1e-32/(1.3806504e-23*298)*6539.40617516188*5*0.0001
variable     v11 equal trap(f_SS[3])*7.94709363935764e-12
variable     v22 equal trap(f_SS[4])*7.94709363935764e-12
variable     v33 equal trap(f_SS[5])*7.94709363935764e-12
variable     v equal (v_v11+v_v22+v_v33)/3.0
thermo_style custom step temp pe press v_pxy v_pxz v_pyz v_v11 v_v22 v_v33
run          8000000
PPPM initialization ...
  G vector (1/distance) = 0.0937255
  grid = 4 4 4
  stencil order = 5
  estimated absolute RMS force accuracy = 9.98047e-05
  estimated relative force accuracy = 6.93105e-06
  3d grid and FFT values/proc = 729 64
Step Temp PotEng Press v_pxy v_pxz v_pyz v_v11 v_v22 v_v33
0     307.4257   -952.21781   -10220.837    643.61033    21630.612   -38855.623 1.6459792e-06 0.0018591565 0.0059990999
Averages over the last 2001 of 4001 rows, steps 4000000 to 8000000:
Temp PotEng Press v_pxy v_pxz v_pyz v_v11 v_v22 v_v33
297.694 -952.601 -4463.27 -4303.3 22282.1 -37515.5 0.05326 1.58304 4.46328
Loop time of 25570.2 on 1 procs for 8000000 steps with 80 atoms

variable     ndens equal count(all)/vol
average viscosity: 2.03231329797944 [Pa.s] @ 298 K, 0.0122335266929676 /A^3
