LAMMPS (22 Aug 2018)
##
dimension 3
boundary p p p
atom_style full
units metal
#kspace_style pppm/cg 1.0e-4
#kspace_modify pressure/scalar no
dielectric 2.0
bond_style harmonic
angle_style harmonic

neighbor 2.0 bin
neigh_modify delay 0 every 1 check yes page 500000 one 50000

region box1 block -40.0 40.0 -40.0 40.0 -40.0 40.0
create_box 4 box1 bond/types 2 extra/bond/per/atom 2 angle/types 1 extra/angle/per/atom 1 extra/special/per/atom 10
Created orthogonal box = (-40 -40 -40) to (40 40 40)

molecule cat_ion cation_mol.txt
Read molecule cat_ion:
  3 atoms with max type 4
  2 bonds with max type 2
  1 angles with max type 1
  0 dihedrals with max type 0
  0 impropers with max type 0

mass    1  86.8 #anion
mass    2  67.0 #ring
mass    3  15.0 #methyl
mass    4  29.0 #ethyl

create_atoms 1 random 40 1340 box1
Created 40 atoms
  Time spent = 0.00152516 secs
create_atoms 0 random 40 2345 box1 mol cat_ion 1234
Created 120 atoms
  Time spent = 7.39098e-05 secs
#create_atoms 1 single  10.0 0.0 0.0
#create_atoms 0 single 0.0 0.0 0.0 mol cat_ion 1234
group anion type 1
40 atoms in group anion
group ring type 2
40 atoms in group ring
group methyl type 3
40 atoms in group methyl
group ethyl type 4
40 atoms in group ethyl

bond_coeff 1 207.729 2.689748837
bond_coeff 2 207.729 3.04931147
angle_coeff 1 207.729 144.1868904

## -- INTERATOMIC POTENTIALS -- #
pair_style lj/cut 18.0
################### properties to change
## values from easy begin

pair_coeff * * 1 1

set type 1 charge -1.0
  40 settings made for charge

########################################

write_data solid.data pair ij
  update every 1 steps, delay 0 steps, check yes

thermo_style	custom step temp pe ke ebond press density

# Sample LAMMPS input script for viscosity of liquid Ar

#units       real
variable    T equal 300
variable    V equal vol
variable    dt equal 1e-4
variable    p equal 400     # correlation length
variable    s equal 5       # sample interval
variable    d equal $p*$s   # dump interval
variable    d equal 400*$s
variable    d equal 400*5

# convert from LAMMPS real units to SI

variable    kB equal 1.3806504e-23    # [J/K/** Boltzmann
variable    bar2Pa equal 100000.0  #variable    atm2Pa equal 101325.0
variable    A2m equal 1.0e-10
variable    ps2s equal 1.0e-12     #variable    fs2s equal 1.0e-15
variable    convert equal 100000*100000*1e-12*1e-10*1e-10*1e-10

timestep    0.0001
variable    tdamp equal 0.0001*10.
variable    pdamp equal 0.0001*100.
thermo      $d
thermo      2000

variable    ILdens equal density
variable    ILstep equal step
variable    ILtime equal time*1.0e-12 #from ps to s
variable    ILtemp equal temp
variable    ILpe equal pe
variable    ILke equal ke
variable    ILpr equal press

##################################
dump        1 all dcd $d minim.dcd
dump        1 all dcd 2000 minim.dcd
dump        2 all custom $d dump.atom id mass type x y z
dump        2 all custom 2000 dump.atom id mass type x y z

# equilibration and thermalization

velocity     all create $T 987654321 mom yes rot yes dist gaussian
velocity     all create 300 987654321 mom yes rot yes dist gaussian
minimize 1.e-4 1.0e-6 1000 10000
Step Temp PotEng KinEng E_bond Press Density
0          300    1.4575362    6.1657089   0.58297596    499.67053  0.025660516
Loop time of 0.0047121 on 1 procs for 43 steps with 160 atoms

Minimization stats:
  Stopping criterion = energy tolerance
  Energy initial, next-to-last, final =
  Force two-norm initial, final = 78.3866 0.822401
  Force max component initial, final = 31.1224 0.315615
  Final line search alpha, max atom move = 0.0246827 0.00779022
  Iterations, force evaluations = 43 132

#reset_timestep 0
#run             200000
#unfix 1
#unfix 333

fix          NVT all nvt temp $T $T 10 drag 0.2
fix          NVT all nvt temp 300 $T 10 drag 0.2
fix          NVT all nvt temp 300 300 10 drag 0.2
run          8000
Step Temp PotEng KinEng E_bond Press Density
43          300    -3.177006    6.1657089 0.00058826609    17.951653  0.025660516
Loop time of 0.207837 on 1 procs for 8000 steps with 160 atoms

# viscosity calculation, switch to NVE if desired
#unfix       NVT
#fix         NVE all nve

reset_timestep 0
variable     pxy equal pxy
variable     pxz equal pxz
variable     pyz equal pyz
fix          SS all ave/correlate $s $p $d              v_pxy v_pxz v_pyz type auto file S0St.dat ave running
fix          SS all ave/correlate 5 $p $d              v_pxy v_pxz v_pyz type auto file S0St.dat ave running
fix          SS all ave/correlate 5 400 $d              v_pxy v_pxz v_pyz type auto file S0St.dat ave running
fix          SS all ave/correlate 5 400 2000              v_pxy v_pxz v_pyz type auto file S0St.dat ave running
variable     scale equal 1e-32/(1.3806504e-23*300)*512000*5*0.0001
variable     v11 equal trap(f_SS[3])*6.18066190639812e-10
variable     v22 equal trap(f_SS[4])*6.18066190639812e-10
variable     v33 equal trap(f_SS[5])*6.18066190639812e-10
variable     v equal (v_v11+v_v22+v_v33)/3.0
thermo_style custom step temp pe press v_pxy v_pxz v_pyz v_v11 v_v22 v_v33
run          1000000
Step Temp PotEng Press v_pxy v_pxz v_pyz v_v11 v_v22 v_v33
0    321.06853   -3.6087802   -78.532499   -3.9112338   -114.39328    24.277116 4.7275111e-09 4.0439521e-06 1.8213742e-07
Averages over the last 251 of 501 rows, steps 500000 to 1000000:
Temp PotEng Press v_pxy v_pxz v_pyz v_v11 v_v22 v_v33
579.97 -103.359 13.7483 -4.76601 -9.79048 -6.01933 -1.8226e-05 -1.77928e-05 -1.53512e-05
Loop time of 29.5699 on 1 procs for 1000000 steps with 160 atoms

variable     ndens equal count(all)/vol
average viscosity: -1.38746706698545e-05 [Pa.s] @ 300 K, 0.0003125 /A^3
