LAMMPS (22 Aug 2018)
##
dimension 3
boundary p p p
atom_style full
units metal
kspace_style pppm/cg 1.0e-4
kspace_modify pressure/scalar no
bond_style harmonic
angle_style harmonic

neighbor 2.0 bin
neigh_modify delay 0 every 1 check yes page 500000 one 50000

region box1 block -40.0 40.0 -40.0 40.0 -40.0 40.0
create_box 4 box1 bond/types 2 extra/bond/per/atom 2 angle/types 1 extra/angle/per/atom 1 extra/special/per/atom 10
Created orthogonal box = (-40 -40 -40) to (40 40 40)

molecule cat_ion cation_mol.txt
Read molecule cat_ion:
  3 atoms with max type 4
  2 bonds with max type 2
  1 angles with max type 1
  0 dihedrals with max type 0
  0 impropers with max type 0

mass    1  86.81 #anion
mass    2  67.07 #ring
mass    3  15.04 #methyl
mass    4  29.07 #ethyl

create_atoms 1 random 40 1340 box1                     #at least 40
Created 40 atoms
  Time spent = 0.00140691 secs
create_atoms 0 random 40 2345 box1 mol cat_ion 1234    #at least 40
Created 120 atoms
  Time spent = 8.60691e-05 secs
#create_atoms 1 single  10.0 0.0 0.0
#create_atoms 0 single 0.0 0.0 0.0 mol cat_ion 1234
group anion type 1
40 atoms in group anion
group ring type 2
40 atoms in group ring
group methyl type 3
40 atoms in group methyl
group ethyl type 4
40 atoms in group ethyl

bond_coeff 1 207.729 2.689748837
bond_coeff 2 207.729 3.04931147
angle_coeff 1 207.729 144.1868904

## -- INTERATOMIC POTENTIALS -- #
pair_style lj/cut/coul/long 18.0
pair_modify mix geometric
#pair_style nm/cut/coul/long 18.0
################### properties to change
## values from easy begin

pair_coeff 1 1 0.03358 4.51
pair_coeff 2 2 0.026533 4.38
pair_coeff 3 3 0.0037311 3.41
pair_coeff 4 4 0.012852 4.38

#create_bonds single/bond 1 2 3
#create_bonds single/bond 2 2 4
#create_bonds single/angle 1 3 2 4

set type 1 charge -0.78
  40 settings made for charge
#set type 2 charge  0.408675
#set type 3 charge  0.317505
#set type 4 charge  0.273820

########################################

write_data solid.data pair ij
PPPM initialization ...
  G vector (1/distance) = 0.103821
  grid = 10 10 10
  stencil order = 5
  estimated absolute RMS force accuracy = 0.00106761
  estimated relative force accuracy = 7.41413e-05
  3d grid and FFT values/proc = 3375 1000
  update every 1 steps, delay 0 steps, check yes

thermo_style	custom step temp pe ke ebond press density

##################################
variable    T equal 300
variable    V equal vol
variable    dt equal 0.001  # default
variable    p equal 400     # correlation length
variable    s equal 5       # sample interval
variable    d equal $p*$s   # dump interval
variable    d equal 400*$s
variable    d equal 400*5

# convert from LAMMPS real units to SI

variable    kB equal 1.3806504e-23    # [J/K/** Boltzmann
variable    bar2Pa equal 100000.0
variable    A2m equal 1.0e-10
variable    ps2s equal 1.0e-12
variable    convert equal 100000*100000*1e-12*1e-10*1e-10*1e-10
timestep    0.001
variable    tdamp equal 0.001*10.
variable    pdamp equal 0.001*100.
thermo      $d
thermo      2000

variable    ILdens equal density
variable    ILstep equal step
variable    ILtime equal time*1.0e-12 #from ps to s
variable    ILtemp equal temp
variable    ILpe equal pe
variable    ILke equal ke
variable    ILpr equal press

##################################
dump        1 all dcd $d minim.dcd
dump        1 all dcd 2000 minim.dcd
dump        2 all custom $d dump.atom id mass type x y z
dump        2 all custom 2000 dump.atom id mass type x y z

##################################
##################################
#  Minimize initial
##################################

velocity     all create $T 502844619  mom yes rot yes dist gaussian
velocity     all create 300 502844619  mom yes rot yes dist gaussian
minimize 1.e-4 1.0e-6 1000 10000
PPPM initialization ...
  G vector (1/distance) = 0.103821
  grid = 10 10 10
  stencil order = 5
  estimated absolute RMS force accuracy = 0.00106761
  estimated relative force accuracy = 7.41413e-05
  3d grid and FFT values/proc = 3375 1000
  PPPM/cg optimization cutoff: 1e-05
  Total charged atoms: 100.0%
  Min/max charged atoms/proc: 100.0% 100.0%
Step Temp PotEng KinEng E_bond Press Density
0          300    8400890.1    6.1657089   0.58297596 1.0516079e+08  0.025685164
Loop time of 0.363615 on 1 procs for 382 steps with 160 atoms

Minimization stats:
  Stopping criterion = energy tolerance
  Energy initial, next-to-last, final =
  Force two-norm initial, final = 1.48053e+08 2.47445
  Force max component initial, final = 6.53831e+07 1.10191
  Final line search alpha, max atom move = 0.115668 0.127455
  Iterations, force evaluations = 382 702

reset_timestep 0
fix 1 all npt temp 300 300 0.01 iso 1.0 1.0 0.1
run             200000
PPPM initialization ...
  G vector (1/distance) = 0.103821
  grid = 10 10 10
  stencil order = 5
  estimated absolute RMS force accuracy = 0.00106761
  estimated relative force accuracy = 7.41413e-05
  3d grid and FFT values/proc = 3375 1000
Step Temp PotEng KinEng E_bond Press Density
0          300   -53.273597    6.1657089 0.0029246214   -19.643204  0.025685164
Averages over the last 51 of 101 rows, steps 100000 to 200000:
Temp PotEng KinEng E_bond Press Density
301.568 -127.351 6.19793 0.105607 657.176 1.19772
Loop time of 295.837 on 1 procs for 200000 steps with 160 atoms

unfix 1
unfix 333
fix 1 all nvt temp 300 300 0.01

reset_timestep 0
variable     pxy equal pxy
variable     pxz equal pxz
variable     pyz equal pyz
fix          SS all ave/correlate $s $p $d              v_pxy v_pxz v_pyz type auto file S0St.dat ave running
fix          SS all ave/correlate 5 $p $d              v_pxy v_pxz v_pyz type auto file S0St.dat ave running
fix          SS all ave/correlate 5 400 $d              v_pxy v_pxz v_pyz type auto file S0St.dat ave running
fix          SS all ave/correlate 5 400 2000              v_pxy v_pxz v_pyz type auto file S0St.dat ave running
variable     scale equal 1e-32/(1.3806504e-23*300)*10877.3878110823*5*0.001
variable     v11 equal trap(f_SS[3])*1.31307532197413e-10
variable     v22 equal trap(f_SS[4])*1.31307532197413e-10
variable     v33 equal trap(f_SS[5])*1.31307532197413e-10
variable     v equal (v_v11+v_v22+v_v33)/3.0
thermo_style custom step temp pe press v_pxy v_pxz v_pyz v_v11 v_v22 v_v33
run          8000000
PPPM initialization ...
  G vector (1/distance) = 0.134806
  grid = 5 5 5
  stencil order = 5
  estimated absolute RMS force accuracy = 0.000667309
  estimated relative force accuracy = 4.6342e-05
  3d grid and FFT values/proc = 1000 125
Step Temp PotEng Press v_pxy v_pxz v_pyz v_v11 v_v22 v_v33
0    330.67544   -127.52081    3292.4746   -350.52893   -52.214326   -220.95415 8.0669133e-06 1.7899422e-07 3.2052652e-06
Averages over the last 2001 of 4001 rows, steps 4000000 to 8000000:
Temp PotEng Press v_pxy v_pxz v_pyz v_v11 v_v22 v_v33
299.942 -127.656 -388.186 86.1761 15.9138 114.6 0.00115392 0.00117898 0.00113703
Loop time of 8254.1 on 1 procs for 8000000 steps with 160 atoms

variable     ndens equal count(all)/vol
average viscosity: 0.00111304873800873 [Pa.s] @ 300 K, 0.0147094139492742 /A^3
