LAMMPS (22 Aug 2018)
## -- INITIALIZATION -- #
dimension 3
boundary p p p
atom_style full
units metal
dielectric 2.0
bond_style harmonic
angle_style harmonic
kspace_style none

neighbor 2.0 bin
neigh_modify delay 0 every 1 check yes

pair_style lj/cut 30.0
read_data read_file.in
  orthogonal box = (-40 -40 -40) to (40 40 40)
  reading atoms ...
  4 atoms
  scanning bonds ...
  scanning angles ...
  reading bonds ...
  2 bonds
  reading angles ...
  1 angles

## -- INTERATOMIC POTENTIALS -- #
pair_coeff 1 1 0.01 4
pair_coeff 2 2 0.01 10
pair_coeff 3 3 0.01 4
pair_coeff 4 4 0.01 4

pair_modify shift yes mix geometric

variable ILpe equal pe
fix 	1 all box/relax iso 0.0 vmax 0.001

##############################################
#fix bond_2_close 2 bond/break       0 2 4 4.5
#fix bond_2_far   3 ring bond/create 0 2 4 4.5
##############################################

## -- EQUILIBRATION -- ##
velocity  all zero linear
reset_timestep  0
timestep	1
timestep        0.0001

thermo   100
thermo_style custom step temp pe ke ebond press density

#label radius_loop
#variable radius index   3.0 3.5 4.0 4.5 5.0 5.5 6.0 7.0 8.0 9.0 10.0 12.0 15.0 20.0 30.0
#variable theta  equal   90
#variable phi    equal   0
#
#variable  vxx equal sin($(v_theta/180*PI))*cos($(v_phi/180*PI))
#variable  vzz equal sin($(v_theta/180*PI))*sin($(v_phi/180*PI))
#variable  vyy equal cos($(v_theta/180*PI))
#variable  xx equal v_radius*v_vxx
#variable  yy equal v_radius*v_vyy
#variable  zz equal v_radius*v_vzz
#

# ---------- Define Settings ---------------------
compute eng all pe/atom
compute eatoms all reduce sum c_eng

dump myDump all atom 100 dump.atom
dump giof   all dcd  100 dump.dcd
# ---------- Run Minimization ---------------------
#dump	1 pe file my_file
thermo_style custom step pe lx ly lz press pxx pyy pzz c_eatoms
min_style cg
minimize 1e-2 1e-2 100 100
  update every 1 steps, delay 0 steps, check yes
Step PotEng Lx Ly Lz Press Pxx Pyy Pzz c_eatoms
0    95.479491           80           80           80   -826.04585   -2426.8208    -41.97223   -9.3445809    95.479491
Loop time of 0.000566959 on 1 procs for 100 steps with 4 atoms

Minimization stats:
  Stopping criterion = max force evaluations
  Energy initial, next-to-last, final =
  Force two-norm initial, final = 878.976 242.029
  Force max component initial, final = 791.927 179.795
  Final line search alpha, max atom move = 1.27303e-05 0.00228884
  Iterations, force evaluations = 100 100

unfix  1

#NVT  Ensemble
fix 1 all nve # temp 300.0 300.0 100.0
#NpT  Ensemble
#fix 1 water npt temp 300.0 300.0 100.0 #iso 0.0 0.0 1000.0
#NpH Ensemble, anisotropic orthorhombic box
#fix 1 water nph aniso 0.0 0.0 1000.0
#NpT Ensemble, Parrinello-Rahman
#fix 2 jello npt temp 300.0 300.0 100.0 #tri 5.0 5.0 1000.

                ## here 1 = ~10*timestep
		# here 1 = ~100*timestep

run 10000
Step PotEng Lx Ly Lz Press Pxx Pyy Pzz c_eatoms
100    24.486121           72           72           72   -91.782997    -556.3045    228.05679    52.898715    24.486121
Averages over the last 51 of 101 rows, steps 5100 to 10100:
PotEng Lx Ly Lz Press Pxx Pyy Pzz c_eatoms
12.2082 72 72 72 -7.84355 -24.1581 0.419147 0.208277 12.2082
Loop time of 0.00945616 on 1 procs for 10000 steps with 4 atoms

#next radius
#jump lammps.inp radius_loop
