LAMMPS (16 Mar 2018)
# in.03
# 3d random polymer

atom_style bond
units lj

read_data data.ab
  orthogonal box = (-5.42561 -5.42561 -5.42561) to (5.42561 5.42561 5.42561)
  reading atoms ...
  800 atoms
  scanning bonds ...
  reading bonds ...
  784 bonds
special_bonds fene

# Step 1: soft potential push-off to remove overlaps

pair_style soft 1.12246
pair_coeff * * 0.0 1.12246

# these have to match the data in def.chain.ab
bond_style harmonic
bond_coeff 1 50.0 0.97
bond_coeff 2 50.0 1.17

# make type 2 particles a bit heavier
mass 2 1.5

velocity all create 0.45 2349852

fix 1 all nve
# use a crude implicit solvent model
fix 2 all langevin 0.45 0.45 0.02 8742

# use this to ramp up the height of the soft core repulsion
variable prefactor equal ramp(1.0,20.0)
fix 3 all adapt 1 pair soft a * * v_prefactor

thermo 50
run 10000
  update every 1 steps, delay 10 steps, check yes
Step Temp E_pair E_mol TotEng Press
0         0.45   0.85482606 8.3632808e-08    1.5289824   0.80722514
Averages over the last 101 of 201 rows, steps 5000 to 10000:
Temp E_pair E_mol TotEng Press
0.44939 0.263311 0.251985 1.18854 1.26485
Loop time of 2.92656 on 1 procs for 10000 steps with 800 atoms

unfix 3
unfix 2
#undump d1

neighbor 0.5 bin

# Main run
pair_style lj/cut 5.0

pair_coeff 1 1 1.0 1.0
pair_coeff 1 2 1.1 1.122462
pair_coeff 2 2 1.2 1.2
thermo 1000

reset_timestep 0

dump d1 all custom 200 lammps.lammpstrj id type x y z
dump_modify d1 pad 5 element N O

run 10000
  update every 1 steps, delay 10 steps, check yes
Step Temp E_pair E_mol TotEng Press
0   0.43255406   -1.7609396    0.2336211  -0.87929843    13.119078
Averages over the last 6 of 11 rows, steps 5000 to 10000:
Temp E_pair E_mol TotEng Press
2.18216 -5.27724 1.11594 -0.892145 1.26427
Loop time of 73.352 on 1 procs for 10000 steps with 800 atoms
